85
C42H42N1
N 5.334 5.334 7.112
C 0.889 6.223 6.223
C 1.778 5.334 7.112
C 1.778 7.112 5.334
C 2.667 4.445 6.223
C 2.667 6.223 4.445
C 2.667 6.223 8.001
C 2.667 8.001 6.223
C 3.556 3.556 7.112
C 3.556 5.334 5.334
C 3.556 5.334 8.89
C 3.556 7.112 3.556
C 3.556 7.112 7.112
C 3.556 8.89 5.334
C 4.445 2.667 6.223
C 4.445 4.445 4.445
C 4.445 4.445 8.001
C 4.445 6.223 2.667
C 4.445 6.223 9.779
C 4.445 8.001 4.445
C 4.445 8.001 8.001
C 4.445 9.779 6.223
C 5.334 1.778 7.112
C 5.334 3.556 5.334
C 5.334 3.556 8.89
C 5.334 5.334 10.668
C 5.334 5.334 3.556
C 5.334 7.112 5.334
C 5.334 7.112 8.89
C 5.334 8.89 7.112
C 6.223 2.667 8.001
C 6.223 4.445 6.223
C 6.223 4.445 9.779
C 6.223 6.223 4.445
C 6.223 6.223 8.001
C 6.223 8.001 6.223
C 7.112 3.556 7.112
C 7.112 5.334 5.334
C 7.112 5.334 8.89
C 7.112 7.112 7.112
C 8.001 4.445 8.001
C 8.001 6.223 6.223
C 8.89 5.334 7.112
H 0.242 5.576 5.576
H 0.242 6.87 6.87
H 1.131 4.687 7.759
H 1.131 7.759 4.687
H 2.02 3.798 5.576
H 2.02 5.576 3.798
H 2.02 6.87 8.648
H 2.02 8.648 6.87
H 2.909 2.909 7.759
H 2.909 4.687 9.537
H 2.909 7.759 2.909
H 2.909 9.537 4.687
H 3.798 10.426 6.87
H 3.798 2.02 5.576
H 3.798 3.798 3.798
H 3.798 5.576 2.02
H 3.798 6.87 10.426
H 3.798 8.648 8.648
H 4.687 1.131 7.759
H 4.687 2.909 9.537
H 4.687 4.687 11.315
H 5.092 10.426 5.576
H 5.092 6.87 2.02
H 5.092 8.648 3.798
H 5.981 1.131 6.465
H 5.981 2.909 4.687
H 5.981 4.687 2.909
H 5.981 5.981 11.315
H 5.981 7.759 9.537
H 5.981 9.537 7.759
H 6.87 2.02 8.648
H 6.87 3.798 10.426
H 6.87 6.87 3.798
H 6.87 8.648 5.576
H 7.759 2.909 6.465
H 7.759 4.687 4.687
H 7.759 5.981 9.537
H 7.759 7.759 7.759
H 8.648 3.798 8.648
H 8.648 6.87 5.576
H 9.537 4.687 6.465
H 9.537 5.981 7.759
